MATDSS_ver0.95/DSS_Files/123Bus/ieee123_VLL_Node.Txt

LINE-LINE VOLTAGES BY BUS & NODE

Bus       Node    VLN (kV)   Angle      pu     Base kV 

SOURCEBUS 1-2       4.16 /_   30.0   0.99999     4.160
   -      2-3       4.16 /_  -90.0   0.99999     4.160
   -      3-1       4.16 /_  150.0   0.99999     4.160
150R .... 1-2     4.3159 /_   30.0    1.0375     4.160
   -      2-3      4.316 /_  -90.0    1.0375     4.160
   -      3-1      4.316 /_  150.0    1.0375     4.160
149 ..... 1-2     4.3159 /_   30.0    1.0375     4.160
   -      2-3      4.316 /_  -90.0    1.0375     4.160
   -      3-1      4.316 /_  150.0    1.0375     4.160
1 ....... 1-2     4.2778 /_   29.7    1.0283     4.160
   -      2-3     4.2939 /_  -90.5    1.0322     4.160
   -      3-1     4.2771 /_  149.4    1.0282     4.160
7 ....... 1-2     4.2502 /_   29.4    1.0217     4.160
   -      2-3     4.2785 /_  -90.8    1.0285     4.160
   -      3-1     4.2506 /_  149.0    1.0218     4.160
8 ....... 1-2      4.232 /_   29.3    1.0173     4.160
   -      2-3     4.2682 /_  -91.0     1.026     4.160
   -      3-1     4.2331 /_  148.7    1.0176     4.160
13 ...... 1-2     4.2067 /_   29.0    1.0112     4.160
   -      2-3      4.253 /_  -91.3    1.0224     4.160
   -      3-1     4.2077 /_  148.3    1.0115     4.160
18 ...... 1-2     4.1758 /_   28.8    1.0038     4.160
   -      2-3     4.2251 /_  -91.5    1.0157     4.160
   -      3-1     4.1807 /_  148.1     1.005     4.160
21 ...... 1-2     4.1736 /_   28.8    1.0033     4.160
   -      2-3     4.2233 /_  -91.5    1.0152     4.160
   -      3-1     4.1777 /_  148.0    1.0043     4.160
23 ...... 1-2      4.172 /_   28.8    1.0029     4.160
   -      2-3     4.2224 /_  -91.6     1.015     4.160
   -      3-1     4.1753 /_  148.0    1.0037     4.160
25 ...... 1-2     4.1702 /_   28.8    1.0025     4.160
   -      2-3     4.2217 /_  -91.6    1.0148     4.160
   -      3-1     4.1732 /_  148.0    1.0032     4.160
25R ..... 3-1     4.1991 /_  148.2    1.0094     4.160
26 ...... 3-1     4.1979 /_  148.2    1.0091     4.160
28 ...... 1-2     4.1693 /_   28.8    1.0022     4.160
   -      2-3     4.2214 /_  -91.6    1.0148     4.160
   -      3-1     4.1724 /_  148.0     1.003     4.160
27 ...... 3-1     4.1976 /_  148.2     1.009     4.160
29 ...... 1-2     4.1687 /_   28.8    1.0021     4.160
   -      2-3     4.2211 /_  -91.6    1.0147     4.160
   -      3-1     4.1714 /_  148.0    1.0027     4.160
30 ...... 1-2     4.1688 /_   28.8    1.0021     4.160
   -      2-3     4.2208 /_  -91.6    1.0146     4.160
   -      3-1     4.1706 /_  148.0    1.0025     4.160
250 ..... 1-2     4.1688 /_   28.8    1.0021     4.160
   -      2-3     4.2208 /_  -91.6    1.0146     4.160
   -      3-1     4.1706 /_  148.0    1.0025     4.160
35 ...... 1-2     4.1648 /_   28.7    1.0011     4.160
   -      2-3     4.2171 /_  -91.6    1.0137     4.160
   -      3-1     4.1732 /_  148.0    1.0032     4.160
36 ...... 1-2     4.1624 /_   28.7    1.0006     4.160
40 ...... 1-2     4.1595 /_   28.7   0.99987     4.160
   -      2-3     4.2125 /_  -91.6    1.0126     4.160
   -      3-1     4.1677 /_  147.9    1.0018     4.160
42 ...... 1-2     4.1542 /_   28.6   0.99861     4.160
   -      2-3     4.2081 /_  -91.7    1.0116     4.160
   -      3-1     4.1624 /_  147.9    1.0006     4.160
44 ...... 1-2     4.1504 /_   28.6    0.9977     4.160
   -      2-3      4.205 /_  -91.7    1.0108     4.160
   -      3-1     4.1584 /_  147.8   0.99962     4.160
47 ...... 1-2     4.1463 /_   28.6    0.9967     4.160
   -      2-3      4.201 /_  -91.7    1.0099     4.160
   -      3-1     4.1536 /_  147.8   0.99847     4.160
48 ...... 1-2     4.1451 /_   28.6   0.99642     4.160
   -      2-3        4.2 /_  -91.7    1.0096     4.160
   -      3-1     4.1525 /_  147.8   0.99821     4.160
49 ...... 1-2     4.1446 /_   28.6   0.99629     4.160
   -      2-3     4.1995 /_  -91.7    1.0095     4.160
   -      3-1      4.152 /_  147.8   0.99809     4.160
50 ...... 1-2     4.1442 /_   28.6   0.99619     4.160
   -      2-3     4.1993 /_  -91.7    1.0094     4.160
   -      3-1     4.1513 /_  147.8    0.9979     4.160
51 ...... 1-2     4.1439 /_   28.6   0.99612     4.160
   -      2-3     4.1993 /_  -91.7    1.0095     4.160
   -      3-1     4.1511 /_  147.8   0.99787     4.160
151 ..... 1-2     4.1439 /_   28.6   0.99612     4.160
   -      2-3     4.1993 /_  -91.7    1.0095     4.160
   -      3-1     4.1511 /_  147.8   0.99787     4.160
52 ...... 1-2     4.1889 /_   28.8    1.0069     4.160
   -      2-3     4.2439 /_  -91.6    1.0202     4.160
   -      3-1     4.1912 /_  148.0    1.0075     4.160
53 ...... 1-2     4.1805 /_   28.7    1.0049     4.160
   -      2-3     4.2392 /_  -91.7     1.019     4.160
   -      3-1     4.1832 /_  147.8    1.0056     4.160
54 ...... 1-2     4.1755 /_   28.6    1.0037     4.160
   -      2-3     4.2363 /_  -91.8    1.0183     4.160
   -      3-1     4.1783 /_  147.7    1.0044     4.160
55 ...... 1-2     4.1751 /_   28.6    1.0036     4.160
   -      2-3      4.236 /_  -91.8    1.0183     4.160
   -      3-1     4.1781 /_  147.7    1.0044     4.160
57 ...... 1-2     4.1612 /_   28.4    1.0003     4.160
   -      2-3     4.2253 /_  -92.0    1.0157     4.160
   -      3-1     4.1682 /_  147.4     1.002     4.160
56 ...... 1-2      4.175 /_   28.6    1.0036     4.160
   -      2-3     4.2357 /_  -91.8    1.0182     4.160
   -      3-1     4.1781 /_  147.7    1.0044     4.160
60 ...... 1-2     4.1313 /_   27.9   0.99311     4.160
   -      2-3     4.2037 /_  -92.5    1.0105     4.160
   -      3-1     4.1466 /_  146.8   0.99678     4.160
61 ...... 1-2     4.1313 /_   27.9   0.99311     4.160
   -      2-3     4.2037 /_  -92.5    1.0105     4.160
   -      3-1     4.1466 /_  146.8   0.99678     4.160
62 ...... 1-2      4.127 /_   27.9   0.99206     4.160
   -      2-3     4.1979 /_  -92.5    1.0091     4.160
   -      3-1     4.1403 /_  146.9   0.99527     4.160
63 ...... 1-2     4.1239 /_   27.9   0.99133     4.160
   -      2-3     4.1944 /_  -92.5    1.0083     4.160
   -      3-1     4.1365 /_  146.9   0.99436     4.160
64 ...... 1-2     4.1191 /_   27.9   0.99016     4.160
   -      2-3     4.1874 /_  -92.5    1.0066     4.160
   -      3-1     4.1302 /_  146.9   0.99284     4.160
65 ...... 1-2     4.1159 /_   27.9   0.98939     4.160
   -      2-3     4.1814 /_  -92.5    1.0052     4.160
   -      3-1     4.1226 /_  146.9   0.99101     4.160
66 ...... 1-2     4.1158 /_   27.9   0.98937     4.160
   -      2-3     4.1794 /_  -92.5    1.0047     4.160
   -      3-1     4.1204 /_  146.9   0.99047     4.160
67 ...... 1-2      4.303 /_   27.1    1.0344     4.160
   -      2-3     4.3276 /_  -92.4    1.0403     4.160
   -      3-1     4.3474 /_  147.0     1.045     4.160
72 ...... 1-2     4.3022 /_   27.0    1.0342     4.160
   -      2-3     4.3258 /_  -92.5    1.0399     4.160
   -      3-1     4.3473 /_  146.9     1.045     4.160
97 ...... 1-2     4.2993 /_   27.0    1.0335     4.160
   -      2-3      4.325 /_  -92.5    1.0397     4.160
   -      3-1     4.3444 /_  147.0    1.0443     4.160
76 ...... 1-2     4.3017 /_   26.9    1.0341     4.160
   -      2-3     4.3251 /_  -92.6    1.0397     4.160
   -      3-1     4.3487 /_  146.9    1.0454     4.160
77 ...... 1-2     4.3069 /_   26.8    1.0353     4.160
   -      2-3     4.3293 /_  -92.7    1.0407     4.160
   -      3-1     4.3527 /_  146.8    1.0463     4.160
86 ...... 1-2     4.2993 /_   26.8    1.0335     4.160
   -      2-3     4.3216 /_  -92.6    1.0388     4.160
   -      3-1     4.3498 /_  146.8    1.0456     4.160
78 ...... 1-2     4.3083 /_   26.8    1.0356     4.160
   -      2-3     4.3306 /_  -92.7     1.041     4.160
   -      3-1     4.3537 /_  146.8    1.0466     4.160
79 ...... 1-2     4.3077 /_   26.8    1.0355     4.160
   -      2-3     4.3306 /_  -92.7     1.041     4.160
   -      3-1     4.3535 /_  146.8    1.0465     4.160
80 ...... 1-2     4.3162 /_   26.7    1.0375     4.160
   -      2-3      4.337 /_  -92.8    1.0426     4.160
   -      3-1     4.3589 /_  146.7    1.0478     4.160
81 ...... 1-2     4.3192 /_   26.7    1.0383     4.160
   -      2-3     4.3398 /_  -92.8    1.0432     4.160
   -      3-1     4.3609 /_  146.7    1.0483     4.160
82 ...... 1-2     4.3235 /_   26.7    1.0393     4.160
   -      2-3     4.3441 /_  -92.9    1.0443     4.160
   -      3-1     4.3644 /_  146.7    1.0491     4.160
83 ...... 1-2     4.3284 /_   26.6    1.0405     4.160
   -      2-3     4.3485 /_  -92.9    1.0453     4.160
   -      3-1     4.3681 /_  146.6      1.05     4.160
87 ...... 1-2     4.2981 /_   26.7    1.0332     4.160
   -      2-3     4.3196 /_  -92.7    1.0384     4.160
   -      3-1     4.3499 /_  146.8    1.0457     4.160
89 ...... 1-2     4.2978 /_   26.7    1.0331     4.160
   -      2-3     4.3192 /_  -92.7    1.0383     4.160
   -      3-1     4.3495 /_  146.8    1.0456     4.160
91 ...... 1-2     4.2971 /_   26.7     1.033     4.160
   -      2-3      4.319 /_  -92.7    1.0382     4.160
   -      3-1     4.3492 /_  146.7    1.0455     4.160
93 ...... 1-2     4.2963 /_   26.7    1.0328     4.160
   -      2-3     4.3184 /_  -92.7    1.0381     4.160
   -      3-1      4.349 /_  146.7    1.0454     4.160
95 ...... 1-2      4.296 /_   26.7    1.0327     4.160
   -      2-3     4.3177 /_  -92.7    1.0379     4.160
   -      3-1      4.349 /_  146.7    1.0454     4.160
98 ...... 1-2     4.2983 /_   27.0    1.0332     4.160
   -      2-3     4.3241 /_  -92.5    1.0395     4.160
   -      3-1     4.3436 /_  147.0    1.0441     4.160
99 ...... 1-2     4.2977 /_   27.0    1.0331     4.160
   -      2-3     4.3224 /_  -92.5     1.039     4.160
   -      3-1     4.3424 /_  147.0    1.0438     4.160
100 ..... 1-2     4.2976 /_   27.0    1.0331     4.160
   -      2-3     4.3221 /_  -92.5     1.039     4.160
   -      3-1     4.3416 /_  147.0    1.0437     4.160
450 ..... 1-2     4.2976 /_   27.0    1.0331     4.160
   -      2-3     4.3221 /_  -92.5     1.039     4.160
   -      3-1     4.3416 /_  147.0    1.0437     4.160
197 ..... 1-2     4.2993 /_   27.0    1.0335     4.160
   -      2-3      4.325 /_  -92.5    1.0397     4.160
   -      3-1     4.3444 /_  147.0    1.0443     4.160
101 ..... 1-2     4.2964 /_   27.0    1.0328     4.160
   -      2-3     4.3232 /_  -92.5    1.0392     4.160
   -      3-1     4.3423 /_  147.0    1.0438     4.160
105 ..... 1-2     4.2935 /_   27.0    1.0321     4.160
   -      2-3     4.3219 /_  -92.5    1.0389     4.160
   -      3-1     4.3415 /_  146.9    1.0436     4.160
108 ..... 1-2     4.2905 /_   27.0    1.0314     4.160
   -      2-3     4.3218 /_  -92.5    1.0389     4.160
   -      3-1     4.3404 /_  146.9    1.0434     4.160
300 ..... 1-2     4.2905 /_   27.0    1.0314     4.160
   -      2-3     4.3218 /_  -92.5    1.0389     4.160
   -      3-1     4.3404 /_  146.9    1.0434     4.160
135 ..... 1-2     4.1758 /_   28.8    1.0038     4.160
   -      2-3     4.2251 /_  -91.5    1.0157     4.160
   -      3-1     4.1807 /_  148.1     1.005     4.160
152 ..... 1-2     4.2067 /_   29.0    1.0112     4.160
   -      2-3      4.253 /_  -91.3    1.0224     4.160
   -      3-1     4.2077 /_  148.3    1.0115     4.160
160R .... 1-2     4.3103 /_   27.3    1.0361     4.160
   -      2-3     4.3348 /_  -92.3     1.042     4.160
   -      3-1     4.3534 /_  147.2    1.0465     4.160
160 ..... 1-2     4.1313 /_   27.9   0.99311     4.160
   -      2-3     4.2037 /_  -92.5    1.0105     4.160
   -      3-1     4.1466 /_  146.8   0.99678     4.160
61S ..... 1-2     4.1313 /_   27.9   0.99311     4.160
   -      2-3     4.2037 /_  -92.5    1.0105     4.160
   -      3-1     4.1466 /_  146.8   0.99678     4.160
300_OPEN  1-2     4.1439 /_   28.6   0.99612     4.160
   -      2-3     4.1993 /_  -91.7    1.0095     4.160
   -      3-1     4.1511 /_  147.8   0.99787     4.160
610 ..... 1-2    0.47669 /_   27.9   0.99311     0.480
   -      2-3    0.48504 /_  -92.5    1.0105     0.480
   -      3-1    0.47845 /_  146.8   0.99678     0.480
